Version 4
SHEET 1 880 680
WIRE -48 -32 -64 -32
WIRE 48 -32 32 -32
WIRE -64 0 -64 -32
WIRE 32 0 32 -32
WIRE 192 112 160 112
WIRE 192 144 160 144
FLAG 256 128 Y
IOPIN 256 128 Out
FLAG 160 112 A
IOPIN 160 112 In
FLAG 160 144 B
IOPIN 160 144 In
FLAG 32 80 0
FLAG -64 80 0
FLAG 48 -32 A
IOPIN 48 -32 Out
FLAG -48 -32 B
IOPIN -48 -32 Out
SYMBOL DigitalLogic\\AND_2 224 128 R0
SYMATTR InstName U1
SYMBOL voltage 32 -16 R0
WINDOW 3 -331 213 Left 2
WINDOW 123 0 0 Left 0
WINDOW 39 0 0 Left 0
SYMATTR InstName V1
SYMATTR Value PULSE(0 5 10m 1n 1n 10m 20m)
SYMBOL voltage -64 -16 R0
WINDOW 3 -236 239 Left 2
WINDOW 123 0 0 Left 0
WINDOW 39 0 0 Left 0
SYMATTR InstName V2
SYMATTR Value PULSE(0 5 20m 1n 1n 20m 40m)
TEXT -302 244 Left 2 !.tran 100m
